Spectre (R) Circuit Simulator
Version 17.1.0.160.isr2 64bit -- 26 Jan 2018
Simulating `input.scs' on linux03.cflab.seas.gwu.edu at 3:38:37 PM, Tue Nov 13, 2018 (process id: 7165).
H = mpsImport( "spectre" "ipi" "v0.0" ?session "spectre1_5949_1" )
H->sclSetResultDir( "../psf" )
H->sclRun( "all" )
sclCkt0xa446da0 = H->sclGetCircuit(  "" )
H->sclQuit(  )
