Spectre (R) Circuit Simulator
Version 17.1.0.160.isr2 64bit -- 26 Jan 2018
Simulating `input.scs' on linux02.cflab.seas.gwu.edu at 10:02:03 AM, Thur Nov 29, 2018 (process id: 13485).
H = mpsImport( "spectre" "ipi" "v0.0" ?session "spectre0_12529_1" )
H->sclSetResultDir( "../psf" )
H->sclRun( "all" )
sclCkt0xa3d9d10 = H->sclGetCircuit(  "" )
H->sclQuit(  )
