Spectre (R) Circuit Simulator
Version 17.1.0.160.isr2 64bit -- 26 Jan 2018
Simulating `input.scs' on linux02.cflab.seas.gwu.edu at 2:45:27 PM, Tue Nov 13, 2018 (process id: 27964).
H = mpsImport( "spectre" "ipi" "v0.0" ?session "spectre1_27349_2" )
H->sclSetResultDir( "../psf" )
H->sclRun( "all" )
sclCkt0x8f0cd10 = H->sclGetCircuit(  "" )
H->sclQuit(  )
