Spectre (R) Circuit Simulator
Version 17.1.0.160.isr2 64bit -- 26 Jan 2018
Simulating `input.scs' on linux03.cflab.seas.gwu.edu at 5:08:21 PM, Tue Oct 2, 2018 (process id: 23826).
H = mpsImport( "spectre" "ipi" "v0.0" ?session "spectre2_20258_9" )
H->sclSetResultDir( "../psf" )
H->sclRun( "all" )
H->sclSetResultDir( "../psf" )
H->sclRun( "all" )
