Spectre (R) Circuit Simulator
Version 17.1.0.160.isr2 64bit -- 26 Jan 2018
Simulating `input.scs' on linux03.cflab.seas.gwu.edu at 12:09:47 PM, Fri Nov 30, 2018 (process id: 29938).
H = mpsImport( "spectre" "ipi" "v0.0" ?session "spectre1_28907_5" )
H->sclSetResultDir( "../psf" )
H->sclRun( "all" )
sclCkt0x8c23d10 = H->sclGetCircuit(  "" )
H->sclQuit(  )
