
Spectre (R) Circuit Simulator
Version 17.1.0.160.isr2 64bit -- 26 Jan 2018
Copyright (C) 1989-2017 Cadence Design Systems, Inc. All rights reserved worldwide. Cadence and Spectre are registered trademarks of Cadence Design Systems, Inc. All others are the property of their respective holders.

Includes RSA BSAFE(R) Cryptographic or Security Protocol Software from RSA Security, Inc.

User: jwcrandall   Host: linux02.cflab.seas.gwu.edu   HostID: A4801F8B   PID: 10025
Memory  available: 26.2576 GB  physical: 33.5891 GB
Linux   : CentOS release 6.10 (Final)
CPU Type: Intel(R) Xeon(R) CPU E5-1620 v3 @ 3.50GHz
All processors running at 3492.0 MHz
        Socket: Processors (Hyperthreaded Processor)
        0:       0 (  4 ),  1 (  5 ),  2 (  6 ),  3 (  7 )
        
System load averages (1min, 5min, 15min) : 1.0 %, 1.0 %, 0.2 %
Hyperthreading is enabled


Simulating `input.scs' on linux02.cflab.seas.gwu.edu at 10:33:55 AM, Fri Nov 16, 2018 (process id: 10025).
Current working directory: /home/seas/jwcrandall/cadence/simulation/hw3_1_adder_4bit_tb/spectre/config/netlist
Command line:
    /apps/vlsi_2018/cadence/SPECTRE171/tools/bin/spectre -64 input.scs  \
        +escchars +log ../psf/spectre.out +inter=mpsc  \
        +mpssession=spectre1_9328_6 -format sst2 -raw ../psf +lqtimeout  \
        900 -maxw 5 -maxn 5
spectre pid = 10025

Loading /apps/vlsi_2018/cadence/SPECTRE171/tools.lnx86/cmi/lib/64bit/5.0/libinfineon_sh.so ...
Loading /apps/vlsi_2018/cadence/SPECTRE171/tools.lnx86/cmi/lib/64bit/5.0/libphilips_o_sh.so ...
Loading /apps/vlsi_2018/cadence/SPECTRE171/tools.lnx86/cmi/lib/64bit/5.0/libphilips_sh.so ...
Loading /apps/vlsi_2018/cadence/SPECTRE171/tools.lnx86/cmi/lib/64bit/5.0/libsparam_sh.so ...
Loading /apps/vlsi_2018/cadence/SPECTRE171/tools.lnx86/cmi/lib/64bit/5.0/libstmodels_sh.so ...
Reading file:  /home/seas/jwcrandall/cadence/simulation/hw3_1_adder_4bit_tb/spectre/config/netlist/input.scs
Reading file:  /apps/vlsi_2018/cadence/SPECTRE171/tools.lnx86/spectre/etc/configs/mapsubckt.cfg
Reading file:  /apps/vlsi_2018/cadence/SPECTRE171/tools.lnx86/spectre/etc/configs/spectre.cfg
Reading file:  /apps/design_kits/ncsu-cdk-1.6.0.beta/models/spectre/nom/ami06P.m
Reading file:  /apps/design_kits/ncsu-cdk-1.6.0.beta/models/spectre/nom/ami06N.m
Time for NDB Parsing: CPU = 130.98 ms, elapsed = 224.906 ms.
Time accumulated: CPU = 151.976 ms, elapsed = 224.91 ms.
Peak resident memory used = 49.1 Mbytes.


Error found by spectre during circuit read-in.
    ERROR (SFE-23): "input.scs" 159: The instance `I28' is referencing an undefined model or subcircuit, `hw3_1_adder_4bit_tb_vdriver'. Either include the file containing the definition of `hw3_1_adder_4bit_tb_vdriver', or define `hw3_1_adder_4bit_tb_vdriver' before running the simulation.

Reading link:  /apps/vlsi_2018/cadence/SPECTRE171/tools.lnx86/spectre/etc/ahdl/discipline.h
Reading file:  /apps/vlsi_2018/cadence/SPECTRE171/tools.lnx86/spectre/etc/ahdl/disciplines.vams
Reading link:  /apps/vlsi_2018/cadence/SPECTRE171/tools.lnx86/spectre/etc/ahdl/constants.h
Reading file:  /apps/vlsi_2018/cadence/SPECTRE171/tools.lnx86/spectre/etc/ahdl/constants.vams
Time for Elaboration: CPU = 16.998 ms, elapsed = 34.5991 ms.
Time accumulated: CPU = 168.974 ms, elapsed = 259.611 ms.
Peak resident memory used = 56.1 Mbytes.


Aggregate audit (10:33:55 AM, Fri Nov 16, 2018):
Time used: CPU = 169 ms, elapsed = 260 ms, util. = 65%.
Time spent in licensing: elapsed = 86 ms, percentage of total = 33.1%.
Peak memory used = 56.2 Mbytes.
Simulation started at: 10:33:55 AM, Fri Nov 16, 2018, ended at: 10:33:55 AM, Fri Nov 16, 2018, with elapsed time (wall clock): 260 ms.
spectre completes with 1 error, 0 warnings, and 0 notices.
spectre terminated prematurely due to fatal error.
