Spectre (R) Circuit Simulator
Version 17.1.0.160.isr2 64bit -- 26 Jan 2018
Simulating `input.scs' on linux03.cflab.seas.gwu.edu at 12:47:57 PM, Fri Nov 30, 2018 (process id: 31205).
H = mpsImport( "spectre" "ipi" "v0.0" ?session "spectre4_28907_8" )
H->sclSetResultDir( "../psf" )
H->sclRun( "all" )
sclCkt0x9003d10 = H->sclGetCircuit(  "" )
H->sclQuit(  )
