Spectre (R) Circuit Simulator
Version 17.1.0.160.isr2 64bit -- 26 Jan 2018
Simulating `input.scs' on linux02.cflab.seas.gwu.edu at 12:01:57 AM, Tue Nov 27, 2018 (process id: 6073).
H = mpsImport( "spectre" "ipi" "v0.0" ?session "spectre0_3143_3" )
H->sclSetResultDir( "../psf" )
H->sclRun( "all" )
sclCkt0xa813d10 = H->sclGetCircuit(  "" )
H->sclQuit(  )
